! allpop def2-tzvpd def2/j defgrid3 diis engrad nbo normalconv nososcf nousesym rijcosx wb97m-v xyzfile 
%basis gtoname "def2-tzvpd.bas" end
%elprop dipole true quadrupole true end
%nbo nbokeylist = "$nbo npa nbo e2pert 0.1 $end" end
%output print[p_reducedorbpopmo_l] 1 print[p_reducedorbpopmo_m] 1 print[p_bondorder_l] 1 print[p_bondorder_m] 1 end
%pal nprocs 8 end
%scf convergence tight maxiter 300 end
%scf thresh 1e-12 tcut 1e-13 end 
*xyz -2 1 
Tl   0.04959860546534451 -0.4476205555231486 0.6197064829477168
Cl   -5.946485741208844 1.2670978787373333 -4.113639065101299
C   -4.651782195258179 0.48571476385467827 -3.218002118028484
C   -4.197416456391216 1.0453407205203304 -2.0373001192030005
C   -3.174982066845509 0.42385259599696523 -1.3482592156271198
Cl   -2.5850469739932693 1.1293135112726786 0.12283892023806728
C   -2.5284714603367835 -0.7733073229428454 -1.777676204883114
O   -1.5603812217283943 -1.3255038838738469 -1.163954729201707
C   -3.0583050673054 -1.280855828322524 -3.003494863946752
Cl   -2.3337045233149083 -2.7310426680337136 -3.6452818442903903
C   -4.086871026178656 -0.6815072460819518 -3.704887184205215
H   -4.629995389529845 1.9600208100947034 -1.6529911349859283
H   -4.442237660686697 -1.1213413176194136 -4.627866124975251
C   -0.47159408085403276 1.6835325212843784 -5.129318911419324
C   -0.6428755902993326 2.118509131088253 -3.823654895363504
C   -0.1988594625576151 1.33798158451555 -2.764458342078378
C   0.40581163977234014 0.11486639622591989 -3.012971454163232
C   0.5883594490495109 -0.32422035719139847 -4.322724670426828
C   0.1523879599177735 0.4619182683878492 -5.37500465176148
N   0.7993322882453813 -0.6396981812723979 -1.8627850152638903
N   1.4035368634080114 -1.6740544191950104 -2.0820197311557704
C   1.8455296646280381 -2.384516548249554 -0.9183822981786883
C   2.5743390273337265 -3.5388586135738835 -1.1928158653612673
C   3.1362419880326087 -4.264097479136191 -0.1553998529665191
C   2.961542729910109 -3.833011659732178 1.1550746448460163
C   2.198530499071431 -2.7011047997693876 1.4246898358155082
C   1.643598942952016 -1.9646582079214467 0.39209520633334827
H   -0.8305318101097829 2.2880594853547396 -5.954929562824053
H   -1.1336101757937087 3.0636147659597674 -3.6222961734699313
H   -0.29709250876709065 1.6742380294028152 -1.735420516216223
H   1.0518921284462068 -1.2865986236613407 -4.489082295465317
H   0.28833700016483127 0.12250961121103819 -6.395905007963833
H   2.6764875605678995 -3.8506067754198052 -2.2283676819085607
H   3.7057210685942974 -5.160839132375056 -0.3638321917815577
H   3.405418635827147 -4.390435651937989 1.9734152224899288
H   2.0292945807486684 -2.404374556275805 2.454543710774574
S   -0.4433649688829181 0.5122385742078472 3.032084567383669
C   -1.9181598150290085 -0.30391294557053333 3.4663408231717345
C   -2.711545106961037 0.3691698414317206 4.461548605022773
N   -3.3225800206376683 0.9045709147124537 5.281444408668863
C   -2.3607707641131888 -1.4805325896525123 2.94559537027699
S   -1.5795396876707084 -2.3956011782985236 1.714820605615238
C   -3.622905323045549 -2.0191053943500124 3.405463418238543
N   -4.625389306344333 -2.467796958460734 3.755273807612755
Cl   3.656846029617736 6.83947637721669 0.7140145536561603
C   2.7772774853674322 5.3154587286894905 0.6579149737827608
C   1.5866585293500493 5.171642390179572 1.3845383453969093
C   0.8768729028833405 4.003366303674634 1.30969697616582
C   1.2863502800922042 2.8885655456467108 0.5007241017626888
O   0.4651169253547051 1.9198843429823085 0.37601975873618826
C   2.573909680003174 3.0341058747718486 -0.1245659870553424
C   3.316169392059862 1.9465234436215322 -0.7501324693425362
O   3.092231109101779 0.7586892897430358 -0.6825644224071585
C   3.2568933831663727 4.261133143420385 -0.06916884198408031
H   1.2379535641504051 5.990065272861276 2.0033503810375253
H   -0.04424168355546164 3.877120678289139 1.867979792377089
H   4.1858013336951245 2.2971608586439265 -1.3540676495440997
H   4.199950724683003 4.3537076800261 -0.6002149598612984
*
%maxcore 5712.0