! allpop def2-tzvpd def2/j defgrid3 diis engrad normalconv nososcf nousesym rijcosx wb97m-v xyzfile 
%basis gtoname "def2-tzvpd.bas" end
%elprop dipole true quadrupole true end
%maxcore 1664.0
%nbo nbokeylist = "$nbo npa nbo e2pert 0.1 $end" end
%output print[p_reducedorbpopmo_l] 1 print[p_reducedorbpopmo_m] 1 print[p_bondorder_l] 1 print[p_bondorder_m] 1 print[p_fockian] 1 print[p_orben] 2 end
%pal nprocs 24 end
%scf convergence tight maxiter 300 end
%scf thresh 1e-12 tcut 1e-13 end 
*xyz 0 1 
O   -1.45119 1.58969 -0.98356
C   -0.54066 2.34862 -1.30047
C   -0.66712 3.77956 -1.42822
C   -1.82916 4.46875 -1.4141
C   -1.98908 5.97064 -1.5708
C   -3.12211 6.08741 -2.59132
C   -3.99979 4.85864 -2.36912
C   -3.27831 3.99901 -1.32388
N   0.69576 1.90659 -1.54398
C   1.10134 0.50071 -1.48328
C   2.57413 0.33472 -1.06175
C   3.19272 -1.04834 -0.86147
C   4.2242 -0.13185 -0.2062
N   5.12931 -0.75048 0.75266
C   5.99746 -0.04652 1.48715
O   5.71212 0.40676 2.59151
C   7.32234 0.10447 0.92166
C   7.90023 -0.44616 -0.22253
C   9.25916 0.01159 -0.30125
C   10.31852 -0.1848 -1.20361
F   10.16219 -0.9581 -2.30282
C   11.54409 0.42945 -0.95317
C   11.73544 1.22954 0.17132
C   10.71166 1.45356 1.09478
C   9.48096 0.83691 0.84029
N   8.29516 0.85525 1.5431
C   4.78602 0.71659 -1.34885
O   3.50427 1.00229 -1.9201
C   3.05232 0.6792 0.34894
H   0.25708 4.32276 -1.54496
H   -2.28632 6.41957 -0.62098
H   -1.08848 6.49321 -1.89554
H   -3.67875 7.01861 -2.47328
H   -2.71776 6.08081 -3.60568
H   -5.00239 5.12727 -2.03178
H   -4.11805 4.30368 -3.30203
H   -3.44463 2.93622 -1.50043
H   -3.66482 4.21063 -0.32559
H   1.39828 2.56066 -1.84719
H   0.47438 -0.06201 -0.78688
H   0.95135 0.0455 -2.46327
H   2.65394 -1.72713 -0.19565
H   3.50208 -1.57172 -1.76677
H   5.42661 -1.68494 0.53179
H   7.41369 -1.10253 -0.92805
H   12.35604 0.27503 -1.64976
H   12.70434 1.6857 0.32816
H   10.86908 2.07483 1.96462
H   8.0961 1.32951 2.41282
H   5.29254 1.6041 -0.96554
H   5.42389 0.12089 -2.00309
H   3.2401 1.7332 0.55563
H   2.5017 0.23017 1.17884
*