! wB97M-V def2-TZVPD EnGrad RIJCOSX def2/J NoUseSym DIIS NOSOSCF NormalConv DEFGRID3 ALLPOP 
%scf Convergence Tight maxiter 300 end %elprop Dipole true Quadrupole true end %output Print[P_ReducedOrbPopMO_L] 1 Print[P_ReducedOrbPopMO_M] 1 Print[P_BondOrder_L] 1 Print[P_BondOrder_M] 1 Print[P_Fockian] 1 Print[P_OrbEn] 2 end %basis GTOName "def2-tzvpd.bas" end %scf THRESH 1e-12 TCUT 1e-13 end %maxcore 1664.0 
*xyz 2 1 
C   0.00562 5.84665 0.65406
C   -0.03484 4.33681 0.46311
O   1.01177 3.70955 0.26817
H   0.53363 6.34505 -0.1589
H   -0.97489 6.32094 0.69591
H   0.53305 6.08214 1.57843
N   -1.24802 3.77285 0.43489
C   -1.56696 2.33597 0.3543
C   -0.77965 1.57062 -0.73706
O   -0.30918 0.45017 -0.48926
C   -3.10875 2.10936 0.12987
C   -3.55159 0.62987 -0.0131
C   -3.93189 2.76735 1.25309
H   -2.05084 4.36491 0.59318
H   -1.2926 1.89064 1.3106
H   -3.37038 2.61461 -0.79985
H   -4.63687 0.57207 -0.09626
H   -3.12976 0.12483 -0.88206
H   -3.27894 0.05876 0.87437
H   -4.99867 2.63113 1.07551
H   -3.70412 2.34037 2.22977
H   -3.734 3.83684 1.32482
N   -0.59189 2.2258 -1.88487
C   0.27273 1.83903 -3.01016
C   1.66103 1.40019 -2.53233
O   1.81279 0.21279 -2.21442
C   0.32815 2.96785 -4.06423
H   -1.00564 3.14576 -1.93567
H   -0.18914 0.97516 -3.48819
H   0.98856 2.69861 -4.88852
H   -0.65663 3.17327 -4.48387
H   0.70214 3.89918 -3.63894
N   2.57831 2.34605 -2.31468
C   3.92234 2.13254 -1.73127
C   3.84649 1.34478 -0.42616
O   4.23984 0.1825 -0.39528
H   2.34181 3.31438 -2.47751
H   4.42786 3.0789 -1.53906
H   4.54593 1.60719 -2.45463
N   3.17998 1.89058 0.60635
C   3.0729 1.28853 1.94227
C   2.44128 -0.11789 1.93172
O   1.68054 -0.45707 1.01259
C   2.26558 2.22987 2.83825
H   2.73831 2.79356 0.50808
H   4.0871 1.21504 2.33483
H   2.28621 1.89393 3.87498
H   2.68568 3.2356 2.82712
H   1.22347 2.30299 2.52719
H   3.42521 -0.55322 3.63225
N   2.78966 -0.91783 2.9371
C   2.33769 -2.28797 3.11163
H   3.07848 -2.9695 2.69349
H   2.23997 -2.51327 4.1736
H   1.38028 -2.46772 2.6226
C   2.59454 -4.9047 -0.27556
C   1.48517 -3.8636 -0.43932
O   1.76541 -2.66134 -0.49873
H   2.21006 -5.92377 -0.3178
H   3.34482 -4.79056 -1.05796
H   3.10322 -4.76105 0.67771
N   0.22765 -4.30621 -0.51533
C   -1.02438 -3.55703 -0.70344
C   -0.96506 -2.65757 -1.94851
O   -0.17108 -1.71566 -1.94928
C   -1.37018 -2.69304 0.55774
C   -1.59619 -3.49221 1.86852
C   -1.68246 -2.53272 3.08418
C   -2.82842 -4.42234 1.74698
H   0.09359 -5.3023 -0.41561
H   -1.8136 -4.29188 -0.86224
H   -2.25107 -2.08032 0.36614
H   -0.56593 -1.98332 0.75162
H   -0.73307 -4.14178 2.01405
H   -0.95095 -2.81843 3.84007
H   -1.49223 -1.49953 2.79359
H   -2.66796 -2.53973 3.54985
H   -2.51305 -5.44267 1.52886
H   -3.40446 -4.45681 2.67169
H   -3.50373 -4.11318 0.94918
H   -2.42783 -3.7246 -2.86292
N   -1.78232 -2.95342 -2.95617
C   -1.8714 -2.19128 -4.20269
H   -1.06265 -1.46864 -4.31138
H   -1.84259 -2.87149 -5.05392
H   -2.82298 -1.65992 -4.18718
Mg   1.16585 -0.86537 -0.7861
*
%pal nprocs 24 end