! allpop def2-tzvpd def2/j defgrid3 diis engrad normalconv nososcf nousesym rijcosx wb97m-v xyzfile 
%basis gtoname "def2-tzvpd.bas" end
%elprop dipole true quadrupole true end
%maxcore 2496.0
%output print[p_reducedorbpopmo_l] 1 print[p_reducedorbpopmo_m] 1 print[p_bondorder_l] 1 print[p_bondorder_m] 1 end
%pal nprocs 16 end
%scf convergence tight maxiter 300 end
%scf thresh 1e-12 tcut 1e-13 end 
*xyz -2 2 
Y   -1.3206358621164622 -0.1002364414479445 -0.24365026482640306
C   3.116817817471574 -2.2362094390491802 -2.2835081618665183
C   3.044983051853047 -2.7041443438728208 -0.8274049757486691
P   1.5511750522128 -2.1380567294473547 0.16990188709182286
C   0.5836036472331023 -3.699195434268918 -0.10148224314130569
C   0.24108005212200825 -4.031135805152276 -1.4125999345475118
C   -0.41749450964966145 -5.217390770845769 -1.6994505546412375
C   -0.7415780644489284 -6.098122981054381 -0.680795551018613
C   -0.44279788573556056 -5.762119981779431 0.6297690491432489
C   0.19396956009022429 -4.562919778033694 0.9209154171113625
C   2.2327791300422684 -2.557950212718238 1.8390968465536097
C   2.774559254449349 -3.834832197134602 2.0387073744488933
C   3.0208719108922097 -4.3317396984116945 3.302576665549985
C   2.6748230491450986 -3.571506418018556 4.409346720038189
C   2.2194039908983143 -2.279080093116884 4.225743153979441
C   2.066653091537993 -1.7219383215065354 2.955892089447154
C   3.1807178865550054 -0.710266217387903 -2.411339481799776
P   1.5246154198475839 0.1573256182865718 -2.328265762583468
C   0.9297189211099922 -0.06564055956038024 -4.049398075999819
C   1.5292982841537062 -0.8731661671026713 -5.013183796767262
C   0.894873523269012 -1.107160987147355 -6.225841928653626
C   -0.3384026882271257 -0.5316219791784196 -6.496213865576912
C   -0.9351482817008655 0.29225705262596485 -5.553121603664381
C   -0.30818029142375036 0.5134369718767354 -4.340048415803631
C   2.2714424532522655 1.8340710858680658 -2.4164109043302666
C   2.114444692698006 2.7238853300663153 -3.473646502076122
C   2.707447657210433 3.9782252980409183 -3.4250114821791113
C   3.464227959010313 4.359445753380362 -2.3265067857421253
C   3.6068906206526927 3.48553679669959 -1.2555509063938786
C   3.0069944643279904 2.240599567752891 -1.298537855618052
H   2.2654483686415006 -2.6211804687916227 -2.847651892526068
H   4.020011070709102 -2.672302643820568 -2.72426516850537
H   3.9216177979910074 -2.3263224733672114 -0.2913297790537601
H   3.072584086178388 -3.7946912350479174 -0.8056721581941906
H   0.4550898968013443 -3.344241240710617 -2.2149382066058925
H   -0.681587330433622 -5.447143647587626 -2.723945494680874
H   -1.2383170747126826 -7.034049246138699 -0.9050255996695903
H   -0.7062058040630027 -6.438058487530189 1.4361135813581491
H   0.3921052594012646 -4.307172451107931 1.9526383149342805
H   2.9623316494216483 -4.468774019709615 1.1820612821262475
H   3.4226079271417804 -5.330764462124312 3.4248475294530807
H   2.7898090589962914 -3.9649389529566474 5.411860241958823
H   1.9816166260111734 -1.6807270059874244 5.0935050644699045
H   0.7805711148760691 -0.015412249153079677 3.042790847367386
H   3.646165728671716 -0.4096477492556903 -3.3525730741533217
H   3.7970916517808075 -0.3101572843031399 -1.6035022529909777
H   2.4930104422562223 -1.3335081035984708 -4.833082597566251
H   1.3587358352387862 -1.7539602321858219 -6.96211974313877
H   -0.8395636626116669 -0.7396418987051465 -7.433843475671616
H   -1.9076344857720757 0.7313946385256144 -5.732886155520231
H   -0.788258926874894 1.1368484890083261 -3.5963397440054163
H   1.5270087466919504 2.4365130897148313 -4.336268704229442
H   2.575314075554997 4.667498181866669 -4.2505659821103805
H   3.93619083898523 5.333787339057284 -2.298755718027663
H   4.173936923599866 3.7824803950589976 -0.3812880201576141
H   3.088139658261251 1.5700961150827435 -0.4496022283467119
O   0.1891306339964383 2.004523122901217 0.15111774643892212
C   -0.15125663987731605 3.1652362258332545 -0.6252791417361946
C   -1.1962309558224085 2.874861927832793 -1.6571663907884622
C   -1.2739066420423237 3.6469022684088195 -2.7901514319814087
C   -2.346318471695938 3.4748550549124415 -3.68609075701749
C   -3.308715010667771 2.4887734819740124 -3.355774845495602
C   -3.1361301964288377 1.7205981063849 -2.238224445360597
N   -2.0813023346316517 1.869310774548081 -1.3693061785995277
H   0.2405437342862872 2.345131397134543 1.071763329223996
H   0.7451271313681538 3.563976933025245 -1.1086786515047728
H   -0.5393897193617535 3.9379514770436095 0.044144545892732284
H   -0.5028344062160951 4.39057023974404 -2.964099257515224
H   -2.4241188176668635 4.0642902006455754 -4.591339480152428
H   -4.18318630785763 2.327434467064453 -3.9731865095860632
H   -3.8488270095651225 0.9419314695020555 -1.9956341785125353
S   -5.2081730374382955 -1.8695285202144383 -2.949027015257245
Sb   -3.5703725605648042 -2.8861858056975875 -1.7361677098627515
S   -3.8632411046850894 -0.1259913095878232 0.5435647003710348
S   -1.6160266673758439 -1.5144983009175426 -2.3007069882475553
S   -4.099514562746537 -2.147654244681114 0.7389843767288694
Cl   -3.8912638312577013 3.249146315982528 1.8921161167128149
Ge   -2.350704033356723 1.6818631171478564 2.2183296138899307
Cl   -0.5866859352197028 3.554013151599593 2.7490180913797935
Cl   -2.8825381980031284 1.2515592374499394 4.447594184931598
N   -1.1091533728082077 -1.5949119226725956 1.6018499786063856
C   -1.8585927987416273 -2.2136196289068537 2.245917513361725
N   -2.385408438340664 -2.9052235149678203 3.2437334346296955
C   -3.2413451002424623 -2.1939598215180274 4.196954949774028
C   -3.2253584327368294 -2.9879599835909496 5.490162922285527
O   -3.67849440770663 -4.322417290294573 5.299888396852156
C   -2.899104340514824 -4.989887368053745 4.323517486941654
C   -2.896612514050195 -4.250312438823051 2.9940544244502605
H   -4.259589321615459 -2.136319229186485 3.7955750721031465
H   -2.8719427275064016 -1.1857476900728743 4.364698142779709
H   -3.89471984943973 -2.533985476286568 6.219428777987547
H   -2.203137773811434 -3.000514173029606 5.894151941725654
H   -3.341188102178718 -5.979246632213287 4.203082739914622
H   -1.8648519574558908 -5.09664307473531 4.68331977973027
H   -3.9127124761744168 -4.1850268946054765 2.590155617325829
H   -2.262925627089126 -4.75512557993053 2.268985177729676
C   1.9616561765651468 1.1770407840635122 4.923276271454013
C   2.750020867153106 0.6798784028973545 3.7069225532169585
C   3.1876567779179825 1.9195432367110132 2.902516431113844
C   1.8267176481367648 -0.23464352939647748 2.813362753902575
C   4.0396372873013915 -0.042226515648974644 4.093832946057983
C   4.442254829051322 -0.22068221639328425 5.413043834640541
C   5.625346509090083 -0.8776601233781725 5.7240370571825645
C   6.447362023251458 -1.3566562902029393 4.717039033397502
C   6.0681450638288315 -1.170097917333682 3.394336679509076
C   4.882647979675831 -0.5246021038227842 3.090306828514808
H   1.0490410145477758 1.666452899715009 4.586009782405927
H   2.536410738188892 1.9219107291032123 5.479127235062084
H   1.6719028107882468 0.3735419300918338 5.60351184148887
H   2.360130741166647 2.615787977920707 2.7959321867228026
H   3.550448762806096 1.6477155804443597 1.9086024106939365
H   4.000741783703053 2.4325946731951094 3.4222864834523894
H   1.9906930073806484 0.03195890949428217 1.7667972369176126
H   3.820614436223184 0.13838041092764317 6.222107066573994
H   5.90111354284501 -1.0216844720431422 6.762371665277941
H   7.370452881271364 -1.8689431490760386 4.9589066820723895
H   6.699332403566435 -1.5378457088586859 2.5937709316661164
H   4.6013715193088665 -0.4004068921536867 2.0509849916276224
*